  Page 1                                    Thu Jul 27 23:07:36 2023

  ******************************************************************
  *                           E P A N E T                          *
  *                   Hydraulic and Water Quality                  *
  *                   Analysis for Pipe Networks                   *
  *                         Version 2.00.12                        *
  ******************************************************************
  
  Analysis begun Thu Jul 27 23:07:36 2023

  Analysis ended Thu Jul 27 23:07:36 2023
