  Page 1                                    Mon Aug 14 12:14:44 2023

  ******************************************************************
  *                           E P A N E T                          *
  *                   Hydraulic and Water Quality                  *
  *                   Analysis for Pipe Networks                   *
  *                         Version 2.00.12                        *
  ******************************************************************
  
  Analysis begun Mon Aug 14 12:14:44 2023

  Analysis ended Mon Aug 14 12:14:44 2023
