  Page 1                                    Fri Jul 07 11:16:14 2023

  ******************************************************************
  *                           E P A N E T                          *
  *                   Hydraulic and Water Quality                  *
  *                   Analysis for Pipe Networks                   *
  *                         Version 2.00.12                        *
  ******************************************************************
  
  Analysis begun Fri Jul 07 11:16:14 2023

  Analysis ended Fri Jul 07 11:16:14 2023
