  Page 1                                    Wed Jul 12 10:26:12 2023

  ******************************************************************
  *                           E P A N E T                          *
  *                   Hydraulic and Water Quality                  *
  *                   Analysis for Pipe Networks                   *
  *                         Version 2.00.12                        *
  ******************************************************************
  
  Analysis begun Wed Jul 12 10:26:12 2023

  Analysis ended Wed Jul 12 10:26:12 2023
